8500-Node/IEEE8500_simple_Reduced_VLN_elem.Txt

NODE-GROUND VOLTAGES BY CIRCUIT ELEMENT

Power Delivery Elements

Bus                  (node ref)  Phase    Magnitude, kV (pu)    Angle

ELEMENT = "Vsource.SOURCE"
SOURCEBUS             (  1)    1           69.715 (    1.05) /_    0.0
SOURCEBUS             (  2)    2           69.715 (    1.05) /_ -120.0
SOURCEBUS             (  3)    3           69.715 (    1.05) /_  120.0
------------
SOURCEBUS             (  0)    1                0 (       0) /_    0.0
SOURCEBUS             (  0)    2                0 (       0) /_    0.0
SOURCEBUS             (  0)    3                0 (       0) /_    0.0

ELEMENT = "Line.L2801909_R20185"
L2801909              (  4)    1           7.5595 (    1.05) /_    0.0
L2801909              (  5)    2           7.5595 (    1.05) /_ -120.0
L2801909              (  6)    3           7.5595 (    1.05) /_  120.0
------------
R20185                (  7)    1           7.5595 (    1.05) /_    0.0
R20185                (  8)    2           7.5595 (    1.05) /_ -120.0
R20185                (  9)    3           7.5595 (    1.05) /_  120.0

ELEMENT = "Line._HVMV_SUB_LSB_HVMV_SUB_48332"
_HVMV_SUB_LSB         ( 10)    1           7.5595 (    1.05) /_    0.0
_HVMV_SUB_LSB         ( 11)    2           7.5595 (    1.05) /_ -120.0
_HVMV_SUB_LSB         ( 12)    3           7.5595 (    1.05) /_  120.0
------------
HVMV_SUB_48332        ( 13)    1           7.5595 (    1.05) /_    0.0
HVMV_SUB_48332        ( 14)    2           7.5595 (    1.05) /_ -120.0
HVMV_SUB_48332        ( 15)    3           7.5595 (    1.05) /_  120.0

ELEMENT = "Line.HVMV_SUB_48332_L2801909"
HVMV_SUB_48332        ( 13)    1           7.5595 (    1.05) /_    0.0
HVMV_SUB_48332        ( 14)    2           7.5595 (    1.05) /_ -120.0
HVMV_SUB_48332        ( 15)    3           7.5595 (    1.05) /_  120.0
------------
L2801909              (  4)    1           7.5595 (    1.05) /_    0.0
L2801909              (  5)    2           7.5595 (    1.05) /_ -120.0
L2801909              (  6)    3           7.5595 (    1.05) /_  120.0

ELEMENT = "Reactor.HVMV_SUB_HSB"
SOURCEBUS             (  1)    1           69.715 (    1.05) /_    0.0
SOURCEBUS             (  2)    2           69.715 (    1.05) /_ -120.0
SOURCEBUS             (  3)    3           69.715 (    1.05) /_  120.0
------------
HVMV_SUB_HSB          ( 16)    1           69.715 (    1.05) /_    0.0
HVMV_SUB_HSB          ( 17)    2           69.715 (    1.05) /_ -120.0
HVMV_SUB_HSB          ( 18)    3           69.715 (    1.05) /_  120.0

ELEMENT = "Transformer.HVMV_SUB"
HVMV_SUB_HSB          ( 16)    1           69.715 (    1.05) /_    0.0
HVMV_SUB_HSB          ( 17)    2           69.715 (    1.05) /_ -120.0
HVMV_SUB_HSB          ( 18)    3           69.715 (    1.05) /_  120.0
HVMV_SUB_HSB          (  0)    4                0 (       0) /_    0.0
------------
REGXFMR_HVMV_SUB_LSB  ( 19)    1           7.5595 (    1.05) /_    0.0
REGXFMR_HVMV_SUB_LSB  ( 20)    2           7.5595 (    1.05) /_ -120.0
REGXFMR_HVMV_SUB_LSB  ( 21)    3           7.5595 (    1.05) /_  120.0
REGXFMR_HVMV_SUB_LSB  (  0)    4                0 (       0) /_    0.0

ELEMENT = "Transformer.FEEDER_REGA"
REGXFMR_HVMV_SUB_LSB  ( 19)    1           7.5595 (    1.05) /_    0.0
REGXFMR_HVMV_SUB_LSB  ( 20)    2           7.5595 (    1.05) /_ -120.0
REGXFMR_HVMV_SUB_LSB  ( 21)    3           7.5595 (    1.05) /_  120.0
REGXFMR_HVMV_SUB_LSB  (  0)    4                0 (       0) /_    0.0
------------
_HVMV_SUB_LSB         ( 10)    1           7.5595 (    1.05) /_    0.0
_HVMV_SUB_LSB         ( 11)    2           7.5595 (    1.05) /_ -120.0
_HVMV_SUB_LSB         ( 12)    3           7.5595 (    1.05) /_  120.0
_HVMV_SUB_LSB         (  0)    4                0 (       0) /_    0.0

ELEMENT = "Transformer.XFRMR_CON_L2801909_SX2801909A"
L2801909              (  4)    1           7.5595 (    1.05) /_    0.0
L2801909              (  0)    2                0 (       0) /_    0.0
------------
SX2801909A            ( 22)    1          0.12599 (   1.049) /_    0.0
SX2801909A            (  0)    2                0 (       0) /_    0.0
------------
SX2801909A            (  0)    1                0 (       0) /_    0.0
SX2801909A            ( 23)    2          0.12599 (   1.049) /_ -180.0

ELEMENT = "Capacitor.CAPBANK2A"
R20185                (  7)    1           7.5595 (    1.05) /_    0.0
------------
R20185                (  0)    1                0 (       0) /_    0.0

ELEMENT = "Capacitor.CAPBANK2B"
R20185                (  8)    1           7.5595 (    1.05) /_ -120.0
------------
R20185                (  0)    1                0 (       0) /_    0.0

ELEMENT = "Capacitor.CAPBANK2C"
R20185                (  9)    1           7.5595 (    1.05) /_  120.0
------------
R20185                (  0)    1                0 (       0) /_    0.0

= = = = = = = = = = = = = = = = = = =  = = = = = = = = = = =  = =

Power Conversion Elements

Bus                  (node ref)  Phase    Magnitude, kV (pu)    Angle

ELEMENT = "Load.226195333C0"
SX2801909A            ( 22)    1          0.12599 (   1.049) /_    0.0
SX2801909A            ( 23)    2          0.12599 (   1.049) /_ -180.0
SX2801909A            (  0)    3                0 (       0) /_    0.0

